matlab/Koosha-Interdependency-master/simulations/data/ieee57.m
% File generated by PSAT from IEEE/CDF data file.
% ------------------------------------------------------------------------------
% Author:   Federico Milano
% E-mail:   fmilano@thunderbox.uwaterloo.ca
% Web-site: http://thunderbox.uwaterloo.ca/~fmilano
% ------------------------------------------------------------------------------
%  08/25/93 UW ARCHIVE           100.0  1961 W IEEE 57 Bus Test Case

Bus.con = [ ...
   1    1.00  1.04000  0.00000  1  1;
   2    1.00  1.01000 -0.02059  1  1;
   3    1.00  0.98500 -0.10420  1  1;
   4    1.00  0.98100 -0.12776  1  1;
   5    1.00  0.97600 -0.14870  1  1;
   6    1.00  0.98000 -0.15097  1  1;
   7    1.00  0.98400 -0.13230  1  1;
   8    1.00  1.00500 -0.07767  1  1;
   9    1.00  0.98000 -0.16685  1  1;
  10    1.00  0.98600 -0.19949  1  1;
  11    1.00  0.97400 -0.17750  1  1;
  12    1.00  1.01500 -0.18256  1  1;
  13    1.00  0.97900 -0.17087  1  1;
  14    1.00  0.97000 -0.16284  1  1;
  15    1.00  0.98800 -0.12531  1  1;
  16    1.00  1.01300 -0.15446  1  1;
  17    1.00  1.01700 -0.09407  1  1;
  18    1.00  1.00100 -0.20438  1  1;
  19    1.00  0.97000 -0.23038  1  1;
  20    1.00  0.96400 -0.23405  1  1;
  21    1.00  1.00800 -0.22497  1  1;
  22    1.00  1.01000 -0.22410  1  1;
  23    1.00  1.00800 -0.22532  1  1;
  24    1.00  0.99900 -0.23126  1  1;
  25    1.00  0.98200 -0.31643  1  1;
  26    1.00  0.95900 -0.22602  1  1;
  27    1.00  0.98200 -0.20036  1  1;
  28    1.00  0.99700 -0.18239  1  1;
  29    1.00  1.01000 -0.17017  1  1;
  30    1.00  0.96200 -0.32603  1  1;
  31    1.00  0.93600 -0.33755  1  1;
  32    1.00  0.94900 -0.32219  1  1;
  33    1.00  0.94700 -0.32289  1  1;
  34    1.00  0.95900 -0.24609  1  1;
  35    1.00  0.96600 -0.24190  1  1;
  36    1.00  0.97600 -0.23719  1  1;
  37    1.00  0.98500 -0.23405  1  1;
  38    1.00  1.01300 -0.22183  1  1;
  39    1.00  0.98300 -0.23492  1  1;
  40    1.00  0.97300 -0.23771  1  1;
  41    1.00  0.99600 -0.24522  1  1;
  42    1.00  0.96600 -0.27053  1  1;
  43    1.00  1.01000 -0.19775  1  1;
  44    1.00  1.01700 -0.20700  1  1;
  45    1.00  1.03600 -0.16144  1  1;
  46    1.00  1.05000 -0.20752  1  1;
  47    1.00  1.03300 -0.21799  1  1;
  48    1.00  1.02700 -0.21974  1  1;
  49    1.00  1.03600 -0.22550  1  1;
  50    1.00  1.02300 -0.23370  1  1;
  51    1.00  1.05200 -0.21852  1  1;
  52    1.00  0.98000 -0.20019  1  1;
  53    1.00  0.97100 -0.21345  1  1;
  54    1.00  0.99600 -0.20403  1  1;
  55    1.00  1.03100 -0.18815  1  1;
  56    1.00  0.96800 -0.27995  1  1;
  57    1.00  0.96500 -0.28903  1  1;
  ];

SW.con = [ ...
   1 100.0   1.00  1.04000  0.00000  0.00000  0.00000 1.1 0.9  1.28900 1 1 1;
  ];

PV.con = [ ...
   2 100.0   1.00  0.00000  1.01000  0.50000 -0.17000 1.1 0.9 1  1;
   3 100.0   1.00  0.40000  0.98500  0.60000 -0.10000 1.1 0.9 1  1;
   6 100.0   1.00  0.00000  0.98000  0.25000 -0.08000 1.1 0.9 1  1;
   8 100.0   1.00  4.50000  1.00500  2.00000 -1.40000 1.1 0.9 1  1;
   9 100.0   1.00  0.00000  0.98000  0.09000 -0.03000 1.1 0.9 1  1;
  12 100.0   1.00  3.10000  1.01500  1.55000 -1.50000 1.1 0.9 1  1;
  ];

PQ.con = [ ...
   1 100.0   1.00  0.55000  0.17000 1.1 0.9 1  1;
   2 100.0   1.00  0.03000  0.88000 1.1 0.9 1  1;
   3 100.0   1.00  0.41000  0.21000 1.1 0.9 1  1;
   5 100.0   1.00  0.13000  0.04000 1.1 0.9 1  1;
   6 100.0   1.00  0.75000  0.02000 1.1 0.9 1  1;
   8 100.0   1.00  1.50000  0.22000 1.1 0.9 1  1;
   9 100.0   1.00  1.21000  0.26000 1.1 0.9 1  1;
  10 100.0   1.00  0.05000  0.02000 1.1 0.9 1  1;
  12 100.0   1.00  3.77000  0.24000 1.1 0.9 1  1;
  13 100.0   1.00  0.18000  0.02300 1.1 0.9 1  1;
  14 100.0   1.00  0.10500  0.05300 1.1 0.9 1  1;
  15 100.0   1.00  0.22000  0.05000 1.1 0.9 1  1;
  16 100.0   1.00  0.43000  0.03000 1.1 0.9 1  1;
  17 100.0   1.00  0.42000  0.08000 1.1 0.9 1  1;
  18 100.0   1.00  0.27200  0.09800 1.1 0.9 1  1;
  19 100.0   1.00  0.03300  0.00600 1.1 0.9 1  1;
  20 100.0   1.00  0.02300  0.01000 1.1 0.9 1  1;
  23 100.0   1.00  0.06300  0.02100 1.1 0.9 1  1;
  25 100.0   1.00  0.06300  0.03200 1.1 0.9 1  1;
  27 100.0   1.00  0.09300  0.00500 1.1 0.9 1  1;
  28 100.0   1.00  0.04600  0.02300 1.1 0.9 1  1;
  29 100.0   1.00  0.17000  0.02600 1.1 0.9 1  1;
  30 100.0   1.00  0.03600  0.01800 1.1 0.9 1  1;
  31 100.0   1.00  0.05800  0.02900 1.1 0.9 1  1;
  32 100.0   1.00  0.01600  0.00800 1.1 0.9 1  1;
  33 100.0   1.00  0.03800  0.01900 1.1 0.9 1  1;
  35 100.0   1.00  0.06000  0.03000 1.1 0.9 1  1;
  38 100.0   1.00  0.14000  0.07000 1.1 0.9 1  1;
  41 100.0   1.00  0.06300  0.03000 1.1 0.9 1  1;
  42 100.0   1.00  0.07100  0.04400 1.1 0.9 1  1;
  43 100.0   1.00  0.02000  0.01000 1.1 0.9 1  1;
  44 100.0   1.00  0.12000  0.01800 1.1 0.9 1  1;
  47 100.0   1.00  0.29700  0.11600 1.1 0.9 1  1;
  49 100.0   1.00  0.18000  0.08500 1.1 0.9 1  1;
  50 100.0   1.00  0.21000  0.10500 1.1 0.9 1  1;
  51 100.0   1.00  0.18000  0.05300 1.1 0.9 1  1;
  52 100.0   1.00  0.04900  0.02200 1.1 0.9 1  1;
  53 100.0   1.00  0.20000  0.10000 1.1 0.9 1  1;
  54 100.0   1.00  0.04100  0.01400 1.1 0.9 1  1;
  55 100.0   1.00  0.06800  0.03400 1.1 0.9 1  1;
  56 100.0   1.00  0.07600  0.02200 1.1 0.9 1  1;
  57 100.0   1.00  0.06700  0.02000 1.1 0.9 1  1;
  ];

Shunt.con = [ ...
  18 100.0   1.00 60  0.00000  0.10000  1;
  25 100.0   1.00 60  0.00000  0.05900  1;
  53 100.0   1.00 60  0.00000  0.06300  1;
  ];

Line.con = [ ...
   1    2  100.00   1.00 60 0   0.0000  0.00830  0.02800  0.12900  0.00000  0.00000 0    0.000    0.000  1;
   2    3  100.00   1.00 60 0   0.0000  0.02980  0.08500  0.08180  0.00000  0.00000 0    0.000    0.000  1;
   3    4  100.00   1.00 60 0   0.0000  0.01120  0.03660  0.03800  0.00000  0.00000 0    0.000    0.000  1;
   4    5  100.00   1.00 60 0   0.0000  0.06250  0.13200  0.02580  0.00000  0.00000 0    0.000    0.000  1;
   4    6  100.00   1.00 60 0   0.0000  0.04300  0.14800  0.03480  0.00000  0.00000 0    0.000    0.000  1;
   6    7  100.00   1.00 60 0   0.0000  0.02000  0.10200  0.02760  0.00000  0.00000 0    0.000    0.000  1;
   6    8  100.00   1.00 60 0   0.0000  0.03390  0.17300  0.04700  0.00000  0.00000 0    0.000    0.000  1;
   8    9  100.00   1.00 60 0   0.0000  0.00990  0.05050  0.05480  0.00000  0.00000 0    0.000    0.000  1;
   9   10  100.00   1.00 60 0   0.0000  0.03690  0.16790  0.04400  0.00000  0.00000 0    0.000    0.000  1;
   9   11  100.00   1.00 60 0   0.0000  0.02580  0.08480  0.02180  0.00000  0.00000 0    0.000    0.000  1;
   9   12  100.00   1.00 60 0   0.0000  0.06480  0.29500  0.07720  0.00000  0.00000 0    0.000    0.000  1;
   9   13  100.00   1.00 60 0   0.0000  0.04810  0.15800  0.04060  0.00000  0.00000 0    0.000    0.000  1;
  13   14  100.00   1.00 60 0   0.0000  0.01320  0.04340  0.01100  0.00000  0.00000 0    0.000    0.000  1;
  13   15  100.00   1.00 60 0   0.0000  0.02690  0.08690  0.02300  0.00000  0.00000 0    0.000    0.000  1;
   1   15  100.00   1.00 60 0   0.0000  0.01780  0.09100  0.09880  0.00000  0.00000 0    0.000    0.000  1;
   1   16  100.00   1.00 60 0   0.0000  0.04540  0.20600  0.05460  0.00000  0.00000 0    0.000    0.000  1;
   1   17  100.00   1.00 60 0   0.0000  0.02380  0.10800  0.02860  0.00000  0.00000 0    0.000    0.000  1;
   3   15  100.00   1.00 60 0   0.0000  0.01620  0.05300  0.05440  0.00000  0.00000 0    0.000    0.000  1;
   4   18  100.00   1.00 60 0   0.0000  0.00000  0.55500  0.00000  0.97000  0.00000 0    0.000    0.000  1;
   4   18  100.00   1.00 60 0   0.0000  0.00000  0.43000  0.00000  0.97800  0.00000 0    0.000    0.000  1;
   5    6  100.00   1.00 60 0   0.0000  0.03020  0.06410  0.01240  0.00000  0.00000 0    0.000    0.000  1;
   7    8  100.00   1.00 60 0   0.0000  0.01390  0.07120  0.01940  0.00000  0.00000 0    0.000    0.000  1;
  10   12  100.00   1.00 60 0   0.0000  0.02770  0.12620  0.03280  0.00000  0.00000 0    0.000    0.000  1;
  11   13  100.00   1.00 60 0   0.0000  0.02230  0.07320  0.01880  0.00000  0.00000 0    0.000    0.000  1;
  12   13  100.00   1.00 60 0   0.0000  0.01780  0.05800  0.06040  0.00000  0.00000 0    0.000    0.000  1;
  12   16  100.00   1.00 60 0   0.0000  0.01800  0.08130  0.02160  0.00000  0.00000 0    0.000    0.000  1;
  12   17  100.00   1.00 60 0   0.0000  0.03970  0.17900  0.04760  0.00000  0.00000 0    0.000    0.000  1;
  14   15  100.00   1.00 60 0   0.0000  0.01710  0.05470  0.01480  0.00000  0.00000 0    0.000    0.000  1;
  18   19  100.00   1.00 60 0   0.0000  0.46100  0.68500  0.00000  0.00000  0.00000 0    0.000    0.000  1;
  19   20  100.00   1.00 60 0   0.0000  0.28300  0.43400  0.00000  0.00000  0.00000 0    0.000    0.000  1;
  21   20  100.00   1.00 60 0   0.0000  0.00000  0.77670  0.00000  1.04300  0.00000 0    0.000    0.000  1;
  21   22  100.00   1.00 60 0   0.0000  0.07360  0.11700  0.00000  0.00000  0.00000 0    0.000    0.000  1;
  22   23  100.00   1.00 60 0   0.0000  0.00990  0.01520  0.00000  0.00000  0.00000 0    0.000    0.000  1;
  23   24  100.00   1.00 60 0   0.0000  0.16600  0.25600  0.00840  0.00000  0.00000 0    0.000    0.000  1;
  24   25  100.00   1.00 60 0   0.0000  0.00000  1.18200  0.00000  1.00000  0.00000 0    0.000    0.000  1;
  24   25  100.00   1.00 60 0   0.0000  0.00000  1.23000  0.00000  1.00000  0.00000 0    0.000    0.000  1;
  24   26  100.00   1.00 60 0   0.0000  0.00000  0.04730  0.00000  1.04300  0.00000 0    0.000    0.000  1;
  26   27  100.00   1.00 60 0   0.0000  0.16500  0.25400  0.00000  0.00000  0.00000 0    0.000    0.000  1;
  27   28  100.00   1.00 60 0   0.0000  0.06180  0.09540  0.00000  0.00000  0.00000 0    0.000    0.000  1;
  28   29  100.00   1.00 60 0   0.0000  0.04180  0.05870  0.00000  0.00000  0.00000 0    0.000    0.000  1;
   7   29  100.00   1.00 60 0   0.0000  0.00000  0.06480  0.00000  0.96700  0.00000 0    0.000    0.000  1;
  25   30  100.00   1.00 60 0   0.0000  0.13500  0.20200  0.00000  0.00000  0.00000 0    0.000    0.000  1;
  30   31  100.00   1.00 60 0   0.0000  0.32600  0.49700  0.00000  0.00000  0.00000 0    0.000    0.000  1;
  31   32  100.00   1.00 60 0   0.0000  0.50700  0.75500  0.00000  0.00000  0.00000 0    0.000    0.000  1;
  32   33  100.00   1.00 60 0   0.0000  0.03920  0.03600  0.00000  0.00000  0.00000 0    0.000    0.000  1;
  34   32  100.00   1.00 60 0   0.0000  0.00000  0.95300  0.00000  0.97500  0.00000 0    0.000    0.000  1;
  34   35  100.00   1.00 60 0   0.0000  0.05200  0.07800  0.00320  0.00000  0.00000 0    0.000    0.000  1;
  35   36  100.00   1.00 60 0   0.0000  0.04300  0.05370  0.00160  0.00000  0.00000 0    0.000    0.000  1;
  36   37  100.00   1.00 60 0   0.0000  0.02900  0.03660  0.00000  0.00000  0.00000 0    0.000    0.000  1;
  37   38  100.00   1.00 60 0   0.0000  0.06510  0.10090  0.00200  0.00000  0.00000 0    0.000    0.000  1;
  37   39  100.00   1.00 60 0   0.0000  0.02390  0.03790  0.00000  0.00000  0.00000 0    0.000    0.000  1;
  36   40  100.00   1.00 60 0   0.0000  0.03000  0.04660  0.00000  0.00000  0.00000 0    0.000    0.000  1;
  22   38  100.00   1.00 60 0   0.0000  0.01920  0.02950  0.00000  0.00000  0.00000 0    0.000    0.000  1;
  11   41  100.00   1.00 60 0   0.0000  0.00000  0.74900  0.00000  0.95500  0.00000 0    0.000    0.000  1;
  41   42  100.00   1.00 60 0   0.0000  0.20700  0.35200  0.00000  0.00000  0.00000 0    0.000    0.000  1;
  41   43  100.00   1.00 60 0   0.0000  0.00000  0.41200  0.00000  0.00000  0.00000 0    0.000    0.000  1;
  38   44  100.00   1.00 60 0   0.0000  0.02890  0.05850  0.00200  0.00000  0.00000 0    0.000    0.000  1;
  15   45  100.00   1.00 60 0   0.0000  0.00000  0.10420  0.00000  0.95500  0.00000 0    0.000    0.000  1;
  14   46  100.00   1.00 60 0   0.0000  0.00000  0.07350  0.00000  0.90000  0.00000 0    0.000    0.000  1;
  46   47  100.00   1.00 60 0   0.0000  0.02300  0.06800  0.00320  0.00000  0.00000 0    0.000    0.000  1;
  47   48  100.00   1.00 60 0   0.0000  0.01820  0.02330  0.00000  0.00000  0.00000 0    0.000    0.000  1;
  48   49  100.00   1.00 60 0   0.0000  0.08340  0.12900  0.00480  0.00000  0.00000 0    0.000    0.000  1;
  49   50  100.00   1.00 60 0   0.0000  0.08010  0.12800  0.00000  0.00000  0.00000 0    0.000    0.000  1;
  50   51  100.00   1.00 60 0   0.0000  0.13860  0.22000  0.00000  0.00000  0.00000 0    0.000    0.000  1;
  10   51  100.00   1.00 60 0   0.0000  0.00000  0.07120  0.00000  0.93000  0.00000 0    0.000    0.000  1;
  13   49  100.00   1.00 60 0   0.0000  0.00000  0.19100  0.00000  0.89500  0.00000 0    0.000    0.000  1;
  29   52  100.00   1.00 60 0   0.0000  0.14420  0.18700  0.00000  0.00000  0.00000 0    0.000    0.000  1;
  52   53  100.00   1.00 60 0   0.0000  0.07620  0.09840  0.00000  0.00000  0.00000 0    0.000    0.000  1;
  53   54  100.00   1.00 60 0   0.0000  0.18780  0.23200  0.00000  0.00000  0.00000 0    0.000    0.000  1;
  54   55  100.00   1.00 60 0   0.0000  0.17320  0.22650  0.00000  0.00000  0.00000 0    0.000    0.000  1;
  11   43  100.00   1.00 60 0   0.0000  0.00000  0.15300  0.00000  0.95800  0.00000 0    0.000    0.000  1;
  44   45  100.00   1.00 60 0   0.0000  0.06240  0.12420  0.00400  0.00000  0.00000 0    0.000    0.000  1;
  40   56  100.00   1.00 60 0   0.0000  0.00000  1.19500  0.00000  0.95800  0.00000 0    0.000    0.000  1;
  56   41  100.00   1.00 60 0   0.0000  0.55300  0.54900  0.00000  0.00000  0.00000 0    0.000    0.000  1;
  56   42  100.00   1.00 60 0   0.0000  0.21250  0.35400  0.00000  0.00000  0.00000 0    0.000    0.000  1;
  39   57  100.00   1.00 60 0   0.0000  0.00000  1.35500  0.00000  0.98000  0.00000 0    0.000    0.000  1;
  57   56  100.00   1.00 60 0   0.0000  0.17400  0.26000  0.00000  0.00000  0.00000 0    0.000    0.000  1;
  38   49  100.00   1.00 60 0   0.0000  0.11500  0.17700  0.00300  0.00000  0.00000 0    0.000    0.000  1;
  38   48  100.00   1.00 60 0   0.0000  0.03120  0.04820  0.00000  0.00000  0.00000 0    0.000    0.000  1;
   9   55  100.00   1.00 60 0   0.0000  0.00000  0.12050  0.00000  0.94000  0.00000 0    0.000    0.000  1;
  ];

Areas.con = [ ...
   1 0 100.0 0 0 0 0 0;
  ];

Bus.names = { ...
  'Kanawha   V1'; 'Turner    V1'; 'Logan     V1'; 'Sprigg    V1'; 'Bus 5     V1';
  'Beaver Ck V1'; 'Bus 7     V1'; 'Clinch Rv V1'; 'Saltville V1'; 'Bus 10    V1';
  'Tazewell  V1'; 'Glen Lyn  V1'; 'Bus 13    V1'; 'Bus 14    V1'; 'Bus 15    V1';
  'Bus 16    V1'; 'Bus 17    V1'; 'Sprigg    V2'; 'Bus 19    V2'; 'Bus 20    V2';
  'Bus 21    V3'; 'Bus 22    V3'; 'Bus 23    V3'; 'Bus 24    V3'; 'Bus 25    V4';
  'Bus 26    V5'; 'Bus 27    V5'; 'Bus 28    V5'; 'Bus 29    V5'; 'Bus 30    V4';
  'Bus 31    V4'; 'Bus 32    V4'; 'Bus 33    V4'; 'Bus 34    V3'; 'Bus 35    V3';
  'Bus 36    V3'; 'Bus 37    V3'; 'Bus 38    V3'; 'Bus 39    V3'; 'Bus 40    V3';
  'Tazewell  V6'; 'Bus 42    V6'; 'Tazewell  V7'; 'Bus 44    V3'; 'Bus 45    V3';
  'Bus 46    V3'; 'Bus 47    V3'; 'Bus 48    V3'; 'Bus 49    V3'; 'Bus 50    V3';
  'Bus 51    V3'; 'Bus 52    V5'; 'Bus 53    V5'; 'Bus 54    V5'; 'Saltville V5';
  'Bus 56    V6'; 'Bus 57    V6'};

Areas.names = { ...
  'IEEE57BUS'};

